<routes>
            <vType id="typeWE" accel="0.8" decel="4.5" sigma="0.5" length="5" minGap="2.5" maxSpeed="15" guiShape="passenger"/>
            <vType id="typeNS" accel="0.8" decel="4.5" sigma="0.5" length="5" minGap="2.5" maxSpeed="15" guiShape="passenger"/>
            <route id="right" edges="51o 1i 2o 52i" />
            <route id="left" edges="52o 2i 1o 51i" />
            <route id="down" edges="54o 4i 3o 53i" />
            <route id="up" edges="53o 3i 4o 54i" />
    <vehicle id="right_0" type="typeWE" route="right" depart="0" />
    <vehicle id="down_1" type="typeNS" route="down" depart="0" color="1,0,0"/>
    <vehicle id="up_2" type="typeNS" route="up" depart="0" color="1,0,0"/>
    <vehicle id="right_3" type="typeWE" route="right" depart="1" />
    <vehicle id="right_4" type="typeWE" route="right" depart="2" />
    <vehicle id="down_5" type="typeNS" route="down" depart="2" color="1,0,0"/>
    <vehicle id="up_6" type="typeNS" route="up" depart="2" color="1,0,0"/>
    <vehicle id="left_7" type="typeWE" route="left" depart="3" />
    <vehicle id="right_8" type="typeWE" route="right" depart="4" />
    <vehicle id="left_9" type="typeWE" route="left" depart="4" />
    <vehicle id="down_10" type="typeNS" route="down" depart="4" color="1,0,0"/>
    <vehicle id="right_11" type="typeWE" route="right" depart="5" />
    <vehicle id="right_12" type="typeWE" route="right" depart="6" />
    <vehicle id="left_13" type="typeWE" route="left" depart="6" />
    <vehicle id="down_14" type="typeNS" route="down" depart="6" color="1,0,0"/>
    <vehicle id="up_15" type="typeNS" route="up" depart="6" color="1,0,0"/>
    <vehicle id="left_16" type="typeWE" route="left" depart="7" />
    <vehicle id="down_17" type="typeNS" route="down" depart="8" color="1,0,0"/>
    <vehicle id="right_18" type="typeWE" route="right" depart="9" />
    <vehicle id="left_19" type="typeWE" route="left" depart="9" />
    <vehicle id="right_20" type="typeWE" route="right" depart="10" />
    <vehicle id="left_21" type="typeWE" route="left" depart="11" />
    <vehicle id="right_22" type="typeWE" route="right" depart="12" />
    <vehicle id="left_23" type="typeWE" route="left" depart="12" />
    <vehicle id="left_24" type="typeWE" route="left" depart="13" />
    <vehicle id="down_25" type="typeNS" route="down" depart="13" color="1,0,0"/>
    <vehicle id="right_26" type="typeWE" route="right" depart="14" />
    <vehicle id="left_27" type="typeWE" route="left" depart="15" />
    <vehicle id="right_28" type="typeWE" route="right" depart="16" />
    <vehicle id="left_29" type="typeWE" route="left" depart="16" />
    <vehicle id="down_30" type="typeNS" route="down" depart="16" color="1,0,0"/>
    <vehicle id="up_31" type="typeNS" route="up" depart="16" color="1,0,0"/>
    <vehicle id="left_32" type="typeWE" route="left" depart="17" />
    <vehicle id="right_33" type="typeWE" route="right" depart="18" />
    <vehicle id="left_34" type="typeWE" route="left" depart="18" />
    <vehicle id="right_35" type="typeWE" route="right" depart="19" />
    <vehicle id="down_36" type="typeNS" route="down" depart="19" color="1,0,0"/>
    <vehicle id="up_37" type="typeNS" route="up" depart="19" color="1,0,0"/>
    <vehicle id="right_38" type="typeWE" route="right" depart="21" />
    <vehicle id="down_39" type="typeNS" route="down" depart="21" color="1,0,0"/>
    <vehicle id="up_40" type="typeNS" route="up" depart="21" color="1,0,0"/>
    <vehicle id="right_41" type="typeWE" route="right" depart="23" />
    <vehicle id="down_42" type="typeNS" route="down" depart="23" color="1,0,0"/>
    <vehicle id="left_43" type="typeWE" route="left" depart="24" />
    <vehicle id="right_44" type="typeWE" route="right" depart="25" />
    <vehicle id="right_45" type="typeWE" route="right" depart="26" />
    <vehicle id="down_46" type="typeNS" route="down" depart="26" color="1,0,0"/>
    <vehicle id="up_47" type="typeNS" route="up" depart="26" color="1,0,0"/>
    <vehicle id="right_48" type="typeWE" route="right" depart="27" />
    <vehicle id="up_49" type="typeNS" route="up" depart="27" color="1,0,0"/>
    <vehicle id="right_50" type="typeWE" route="right" depart="28" />
    <vehicle id="left_51" type="typeWE" route="left" depart="28" />
    <vehicle id="right_52" type="typeWE" route="right" depart="29" />
    <vehicle id="left_53" type="typeWE" route="left" depart="29" />
    <vehicle id="up_54" type="typeNS" route="up" depart="29" color="1,0,0"/>
    <vehicle id="right_55" type="typeWE" route="right" depart="30" />
    <vehicle id="left_56" type="typeWE" route="left" depart="30" />
    <vehicle id="left_57" type="typeWE" route="left" depart="31" />
    <vehicle id="up_58" type="typeNS" route="up" depart="31" color="1,0,0"/>
    <vehicle id="up_59" type="typeNS" route="up" depart="32" color="1,0,0"/>
    <vehicle id="right_60" type="typeWE" route="right" depart="33" />
    <vehicle id="left_61" type="typeWE" route="left" depart="33" />
    <vehicle id="down_62" type="typeNS" route="down" depart="33" color="1,0,0"/>
    <vehicle id="up_63" type="typeNS" route="up" depart="33" color="1,0,0"/>
    <vehicle id="left_64" type="typeWE" route="left" depart="34" />
    <vehicle id="down_65" type="typeNS" route="down" depart="34" color="1,0,0"/>
    <vehicle id="right_66" type="typeWE" route="right" depart="35" />
    <vehicle id="left_67" type="typeWE" route="left" depart="35" />
    <vehicle id="right_68" type="typeWE" route="right" depart="36" />
    <vehicle id="left_69" type="typeWE" route="left" depart="36" />
    <vehicle id="left_70" type="typeWE" route="left" depart="38" />
    <vehicle id="left_71" type="typeWE" route="left" depart="39" />
    <vehicle id="left_72" type="typeWE" route="left" depart="40" />
    <vehicle id="left_73" type="typeWE" route="left" depart="41" />
    <vehicle id="down_74" type="typeNS" route="down" depart="41" color="1,0,0"/>
    <vehicle id="up_75" type="typeNS" route="up" depart="41" color="1,0,0"/>
    <vehicle id="right_76" type="typeWE" route="right" depart="42" />
    <vehicle id="down_77" type="typeNS" route="down" depart="42" color="1,0,0"/>
    <vehicle id="right_78" type="typeWE" route="right" depart="43" />
    <vehicle id="down_79" type="typeNS" route="down" depart="44" color="1,0,0"/>
    <vehicle id="right_80" type="typeWE" route="right" depart="46" />
    <vehicle id="right_81" type="typeWE" route="right" depart="48" />
    <vehicle id="left_82" type="typeWE" route="left" depart="48" />
    <vehicle id="left_83" type="typeWE" route="left" depart="49" />
    <vehicle id="down_84" type="typeNS" route="down" depart="49" color="1,0,0"/>
    <vehicle id="up_85" type="typeNS" route="up" depart="49" color="1,0,0"/>
</routes>
