<routes>
            <vType id="typeWE" accel="0.8" decel="4.5" sigma="0.5" length="5" minGap="2.5" maxSpeed="15" guiShape="passenger"/>
            <vType id="typeNS" accel="0.8" decel="4.5" sigma="0.5" length="5" minGap="2.5" maxSpeed="15" guiShape="passenger"/>
            <route id="right" edges="51o 1i 2o 52i" />
            <route id="left" edges="52o 2i 1o 51i" />
            <route id="down" edges="54o 4i 3o 53i" />
            <route id="up" edges="53o 3i 4o 54i" />
    <vehicle id="down_0" type="typeNS" route="down" depart="2" color="1,0,0"/>
    <vehicle id="right_1" type="typeWE" route="right" depart="4" />
    <vehicle id="down_2" type="typeNS" route="down" depart="4" color="1,0,0"/>
    <vehicle id="right_3" type="typeWE" route="right" depart="7" />
    <vehicle id="right_4" type="typeWE" route="right" depart="9" />
    <vehicle id="right_5" type="typeWE" route="right" depart="10" />
    <vehicle id="down_6" type="typeNS" route="down" depart="10" color="1,0,0"/>
    <vehicle id="right_7" type="typeWE" route="right" depart="11" />
    <vehicle id="right_8" type="typeWE" route="right" depart="12" />
    <vehicle id="right_9" type="typeWE" route="right" depart="13" />
    <vehicle id="down_10" type="typeNS" route="down" depart="13" color="1,0,0"/>
    <vehicle id="right_11" type="typeWE" route="right" depart="14" />
    <vehicle id="right_12" type="typeWE" route="right" depart="15" />
    <vehicle id="right_13" type="typeWE" route="right" depart="16" />
    <vehicle id="down_14" type="typeNS" route="down" depart="16" color="1,0,0"/>
    <vehicle id="right_15" type="typeWE" route="right" depart="17" />
    <vehicle id="right_16" type="typeWE" route="right" depart="18" />
    <vehicle id="down_17" type="typeNS" route="down" depart="19" color="1,0,0"/>
    <vehicle id="down_18" type="typeNS" route="down" depart="20" color="1,0,0"/>
    <vehicle id="right_19" type="typeWE" route="right" depart="22" />
    <vehicle id="right_20" type="typeWE" route="right" depart="23" />
    <vehicle id="right_21" type="typeWE" route="right" depart="24" />
    <vehicle id="right_22" type="typeWE" route="right" depart="25" />
    <vehicle id="down_23" type="typeNS" route="down" depart="27" color="1,0,0"/>
    <vehicle id="right_24" type="typeWE" route="right" depart="28" />
    <vehicle id="down_25" type="typeNS" route="down" depart="28" color="1,0,0"/>
    <vehicle id="right_26" type="typeWE" route="right" depart="29" />
    <vehicle id="right_27" type="typeWE" route="right" depart="31" />
    <vehicle id="right_28" type="typeWE" route="right" depart="33" />
    <vehicle id="down_29" type="typeNS" route="down" depart="35" color="1,0,0"/>
    <vehicle id="right_30" type="typeWE" route="right" depart="36" />
    <vehicle id="right_31" type="typeWE" route="right" depart="37" />
    <vehicle id="right_32" type="typeWE" route="right" depart="38" />
    <vehicle id="right_33" type="typeWE" route="right" depart="42" />
    <vehicle id="right_34" type="typeWE" route="right" depart="48" />
</routes>
